100
nN.log	Energy: -1822022.3273903
S          3.10904        1.16874       -0.20007
C          3.74366       -0.46455       -0.11267
C          2.78357       -1.41993       -0.11166
C          1.45196       -0.87662       -0.18254
C          0.23156       -1.56885       -0.20017
C         -0.92308       -0.79742       -0.27108
S         -2.56782       -1.42043       -0.30260
C         -3.20250        0.21296       -0.38796
C         -2.24226        1.16817       -0.39285
C         -0.91052        0.62467       -0.32605
C          0.30994        1.31682       -0.31046
C          1.46453        0.54545       -0.23798
H          4.81297       -0.60477       -0.06670
H          2.98651       -2.48088       -0.06200
H         -4.27197        0.35336       -0.42949
H         -2.44523        2.22921       -0.44046
C          0.17186       -3.05494       -0.14352
C          0.11342       -3.70140        1.10231
C          0.12412       -2.90125        2.38068
C          0.03238       -5.09317        1.13324
C          0.16727       -3.79728       -1.33606
C          0.22237       -3.09966       -2.67207
C          0.11908       -5.18908       -1.26047
C          0.04188       -5.86811       -0.03577
H         -0.70509       -2.18906        2.40752
H          1.04521       -2.31924        2.47569
H          0.04240       -3.55611        3.24943
H         -0.02905       -5.58571        2.09842
H          1.11730       -2.47713       -2.75771
H         -0.63817       -2.43855       -2.80696
H          0.22796       -3.82357       -3.48827
H          0.12536       -5.75673       -2.18541
B         -0.03816       -7.42984        0.02804
C          1.08584       -8.30649       -0.60583
C          2.19800       -7.71738       -1.22559
C          3.20616       -8.48917       -1.79928
C          3.12382       -9.87650       -1.74839
C          2.04080      -10.48080       -1.11224
C          1.01203       -9.72636       -0.53198
B         -0.17224      -10.42992        0.21628
C         -0.18584      -12.00255        0.32760
C         -1.31023       -9.54460        0.82254
C         -2.42685      -10.12436        1.43918
C         -3.47134       -9.35045        1.94404
C         -3.41851       -7.96615        1.83306
C         -2.31782       -7.36455        1.22470
C         -1.25043       -8.12368        0.72457
H          2.27852       -6.63776       -1.25593
H          4.05290       -8.01011       -2.27844
H          3.90353      -10.48586       -2.19215
H          2.00331      -11.56316       -1.06769
H         -0.26003      -12.44637       -0.67388
H         -0.99182      -12.42471        0.92859
H          0.75974      -12.37221        0.74071
H         -2.49421      -11.20197        1.52546
H         -4.32365       -9.82826        2.41454
H         -4.23071       -7.35631        2.21307
H         -2.29250       -6.28596        1.13000
C          0.36980        2.80289       -0.36722
C          0.33647        3.54627        0.82427
C          0.22677        2.85001        2.15760
C          0.41987        4.93630        0.75073
C          0.46679        3.44831       -1.61113
C          0.50962        2.64674       -2.88797
C          0.51402        4.84183       -1.64277
C          0.50110        5.61604       -0.47343
H          1.04674        2.14117        2.30145
H         -0.70286        2.27845        2.23040
H          0.24923        3.57161        2.97556
H          0.41060        5.50404        1.67567
H         -0.37866        2.01733       -2.99083
H          1.37538        1.97896       -2.90508
H          0.56789        3.30357       -3.75713
H          0.57976        5.33424       -2.60765
B          0.58187        7.17812       -0.52661
C         -0.48710        8.00043       -1.31084
C         -1.54802        7.36240       -1.97065
C         -2.50483        8.08509       -2.68018
C         -2.42301        9.47254       -2.72834
C         -1.39324       10.12697       -2.05447
C         -0.41613        9.42215       -1.33847
B          0.70631       10.18424       -0.55328
C          0.71288       11.76084       -0.55440
C          1.79626        9.35100        0.19775
C          2.86695        9.97961        0.84708
C          3.87180        9.24961        1.48121
C          3.82424        7.86067        1.47174
C          2.76843        7.21104        0.83397
C          1.74120        7.92660        0.20262
H         -1.62902        6.28335       -1.92524
H         -3.31182        7.56822       -3.18782
H         -3.16283       10.04386       -3.27828
H         -1.35672       11.20973       -2.08879
H          0.90638       12.12769       -1.57137
H          1.44841       12.22765        0.10152
H         -0.27061       12.16006       -0.28253
H          2.92970       11.06093        0.85667
H          4.68955        9.76447        1.97345
H          4.60613        7.28409        1.95359
H          2.74763        6.12828        0.81983
